276
92 184 MOL 3 2 96 97
 O   0.000000   0.000000   0.000000
 O   -1.169880   -0.977200   2.031340
 O   2.266990   1.023990   1.304660
 O   2.171950   -0.732430   -2.086020
 O   -2.837220   1.435980   -0.644940
 O   -1.822420   1.556510   2.785950
 O   -0.371950   -3.539470   1.171800
 O   -1.836930   -3.112410   -1.035510
 O   -3.529240   -1.262430   -0.361140
 O   3.593000   -1.502850   0.158210
 O   0.004950   -2.598480   -3.032170
 O   1.719760   -2.289500   2.861630
 O   -1.592660   3.852010   -1.327820
 O   3.753670   1.497250   -1.751920
 O   0.904710   4.767170   -0.854680
 O   2.332770   1.619500   4.178240
 O   -3.138350   1.707550   -3.638860
 O   -0.343980   1.063190   5.002010
 O   1.940390   0.089690   -4.856210
 O   2.036550   -4.192600   -2.615240
 O   3.425660   4.091320   -0.579380
 O   4.676070   -0.805080   2.567510
 O   -2.000190   4.044180   3.040740
 O   -4.611380   -1.682900   2.361000
 O   4.581210   2.423200   1.867240
 O   -2.422920   -2.924380   4.082540
 O   -4.628120   1.112400   2.967300
 O   -5.171600   2.284380   0.781530
 O   1.849870   4.177210   3.422800
 O   0.931400   2.992020   -4.798260
 O   -1.424910   3.999300   -4.133900
 O   5.574850   -1.051350   -2.140210
 O   2.580600   -5.498790   -0.036390
 O   2.898760   -4.927100   2.296240
 O   -3.636570   4.971330   -0.593550
 O   -2.319480   -3.230910   -4.789430
 O   4.856340   -3.798800   -1.321970
 O   -3.684540   -4.705750   -2.240870
 O   -1.369650   -6.192370   0.927970
 O   -1.912510   -1.110200   6.034530
 O   3.997610   -2.572440   4.352120
 O   -6.079690   -1.857850   -1.108980
 O   -3.731990   -0.693780   -5.319840
 O   1.893420   5.234250   -3.521650
 O   2.002910   6.163820   1.321090
 O   4.679730   0.382400   -4.923360
 O   -5.606410   2.210100   -3.527430
 O   -4.497580   5.209550   2.043660
 O   0.846720   -2.492860   6.680880
 O   6.718110   0.825560   2.515340
 O   6.385960   2.315020   -2.451520
 O   -0.522730   5.666570   4.554890
 O   -3.733180   3.161720   5.440280
 O   4.566640   4.749640   -3.340910
 O   0.572830   -7.120910   -1.993390
 O   -5.066380   4.777590   -2.618040
 O   2.975020   1.335960   6.707130
 O   -1.482010   7.286450   -0.750220
 O   -0.036060   -4.714330   -5.856060
 O   3.466430   -1.416000   6.590790
 O   -3.761220   -6.471670   1.289990
 O   7.607780   0.467040   -0.113050
 O   -6.827880   -3.236670   1.123530
 O   -0.129890   7.378990   2.024560
 O   2.744600   -5.369840   4.771420
 O   -0.623250   2.258430   7.329570
 O   0.564270   -7.200330   2.661850
 O   1.008990   -0.581720   -7.609960
 O   -4.449490   0.341010   6.345980
 O   -2.453080   2.398130   -7.060360
 O   5.135920   4.275650   4.138030
 O   -1.896870   -0.402460   -7.693510
 O   2.327920   -5.727040   -5.093500
 O   -1.998960   -7.724440   -1.372190
 O   -6.493120   -4.255500   -2.482470
 O   0.340900   -5.105010   6.353590
 O   4.156100   6.952830   1.318930
 O   7.277280   -3.642390   1.083790
 O   -3.700530   5.450820   -4.951780
 O   -7.921160   -1.105340   2.017830
 O   -2.136970   -5.735550   5.555740
 O   7.966630   -2.108040   -0.866610
 O   -6.129760   -1.696570   -5.354470
 O   -7.234820   0.345480   -4.181470
 O   6.297640   -3.979960   3.826890
 O   -8.305110   1.014120   0.379480
 O   7.667110   3.578790   -0.162590
 O   1.348390   7.946680   -2.608420
 O   -1.043270   -0.877130   8.377110
 O   0.661300   3.875270   -7.565470
 O   -3.017990   -6.994880   -3.837020
 O   -6.497850   2.745780   4.896360
 H   -0.497640   -0.470910   0.648500
 H   -0.666440   0.434260   -0.677490
 H   -1.561260   -0.239110   2.237030
 H   -1.242600   -1.340140   2.885170
 H   2.856150   0.404850   0.671340
 H   1.206400   1.084040   1.011460
 H   1.369460   -1.171830   -2.030600
 H   2.463560   -0.964410   -1.156230
 H   -3.589420   1.579800   -0.182010
 H   -3.095330   0.390210   -0.731180
 H   -1.536740   2.561880   2.531220
 H   -2.708100   1.392990   2.920760
 H   -0.485440   -3.481930   0.189280
 H   -0.989710   -2.825290   1.440420
 H   -2.442460   -3.779490   -1.533010
 H   -2.659070   -2.516010   -0.845750
 H   -3.882040   -1.441850   0.498380
 H   -4.353270   -1.364530   -0.938610
 H   4.341920   -1.229350   0.714640
 H   3.853200   -2.442160   -0.024010
 H   -0.592650   -2.511390   -3.721320
 H   -0.660350   -2.549660   -2.417570
 H   1.683920   -1.550860   2.123640
 H   0.773930   -2.621850   2.651700
 H   -1.706400   2.956840   -0.791680
 H   -2.036400   4.515760   -0.943350
 H   2.835380   1.073310   -1.573300
 H   3.428590   2.449090   -1.684710
 H   0.984700   5.069520   0.040000
 H   -0.029430   4.387420   -0.833440
 H   2.150420   2.566060   3.880190
 H   2.507490   1.072870   3.409900
 H   -2.970330   1.835220   -2.708470
 H   -2.409210   2.178680   -4.176170
 H   0.598480   1.003420   4.652670
 H   -0.814700   1.436410   4.316530
 H   1.872030   -0.101650   -3.920290
 H   2.879570   0.223170   -4.990220
 H   2.092080   -4.645560   -3.332620
 H   1.309880   -3.502400   -2.747610
 H   4.137780   4.796840   -0.979710
 H   2.578970   4.437910   -0.807250
 H   5.648450   -0.785920   2.768170
 H   4.185750   -1.251240   3.264750
 H   -2.824680   4.619420   2.503810
 H   -1.507360   4.519040   3.741700
 H   -5.235790   -2.358080   2.121440
 H   -3.990500   -2.258510   2.754360
 H   4.920770   2.835900   1.051340
 H   3.532630   2.288540   1.659360
 H   -2.476400   -3.895960   4.041370
 H   -2.371450   -2.539840   4.909820
 H   -5.309530   1.351490   3.706650
 H   -4.719230   0.125690   2.982530
 H   -6.019150   2.258850   0.202420
 H   -5.070830   1.702560   1.447840
 H   2.280460   4.706830   2.719290
 H   0.847210   4.048610   3.356980
 H   0.934340   3.338780   -5.757860
 H   1.154940   1.905240   -4.831830
 H   -0.559950   3.810100   -4.206730
 H   -1.630780   3.891250   -3.139320
 H   4.951310   -0.345320   -1.746100
 H   5.263960   -1.986560   -2.181390
 H   3.360400   -6.074530   -0.004380
 H   2.078610   -5.321810   -0.835910
 H   2.210100   -4.327620   2.361980
 H   3.106020   -4.929890   1.304540
 H   -4.024230   4.827660   0.238070
 H   -4.165360   4.708380   -1.274180
 H   -3.105190   -3.621560   -4.355310
 H   -2.536100   -2.334330   -5.325080
 H   5.264320   -4.524330   -1.814620
 H   3.897780   -3.638370   -1.684650
 H   -4.544670   -4.995890   -1.931410
 H   -3.341770   -5.175690   -2.981990
 H   -0.723360   -6.623280   1.664590
 H   -1.133500   -5.226920   1.170800
 H   -1.437410   -0.281380   5.909480
 H   -1.919560   -1.274600   6.927240
 H   3.784180   -2.024050   5.100770
 H   2.986390   -2.632670   3.966940
 H   -6.704090   -1.270900   -1.499820
 H   -5.955630   -2.559530   -1.681310
 H   -3.416700   -0.193440   -4.655090
 H   -3.173280   -0.526870   -5.932510
 H   1.435110   5.056570   -2.663780
 H   1.844880   4.229060   -3.851560
 H   2.762950   6.623580   1.690850
 H   1.358200   6.606000   1.712370
 H   5.513610   0.008720   -5.299560
 H   5.013870   -0.082880   -4.066490
 H   -6.356460   1.569260   -3.629160
 H   -4.847190   1.781310   -3.680030
 H   -4.560440   5.815110   2.814320
 H   -5.426450   4.693940   2.059880
 H   -0.007210   -1.882200   6.842760
 H   0.805570   -3.357560   6.420910
 H   5.857380   1.295340   2.536730
 H   6.834770   0.789620   1.490720
 H   5.807390   2.958860   -2.881740
 H   5.646420   1.914500   -2.247150
 H   0.076770   6.234690   5.172700
 H   -0.428050   6.092990   3.764170
 H   -3.234880   3.870110   6.019340
 H   -3.188100   3.134730   4.593230
 H   4.127780   4.678930   -4.199520
 H   5.160170   5.536120   -3.306620
 H   -0.248160   -7.199660   -1.625310
 H   0.651770   -6.087180   -2.096840
 H   -5.399160   3.808250   -2.617080
 H   -4.889550   5.138960   -3.563560
 H   3.796440   1.886430   6.668810
 H   2.573850   1.471650   5.883650
 H   -1.577250   7.901760   -1.420090
 H   -2.135250   6.541050   -1.004030
 H   -0.644430   -5.539870   -6.187530
 H   -0.684630   -3.879440   -5.816030
 H   3.701670   -0.495100   6.306450
 H   2.334740   -1.655320   6.621120
 H   -4.483060   -5.902300   1.004760
 H   -2.983590   -6.062690   1.086130
 H   8.143270   -0.383230   0.153660
 H   8.364180   0.892750   -0.612770
 H   -7.203000   -2.489930   1.643370
 H   -6.504950   -2.845560   0.336160
 H   -0.778690   7.064500   1.255310
 H   -0.167740   8.362150   2.226250
 H   2.827100   -5.254380   3.777080
 H   1.852660   -5.208880   5.051280
 H   -0.004180   3.082020   7.188030
 H   -0.649940   1.930740   6.439280
 H   1.339780   -6.467960   2.533110
 H   0.594480   -7.745110   3.402300
 H   0.995000   -0.507110   -6.646130
 H   1.807840   -1.092660   -8.021540
 H   -3.805310   -0.247430   6.435170
 H   -4.173630   1.207810   6.219350
 H   -3.326260   2.312440   -6.650150
 H   -2.470260   3.194150   -7.560660
 H   4.978840   3.508270   3.375550
 H   4.103600   4.394650   4.563060
 H   -1.934540   0.437610   -7.656010
 H   -1.000670   -0.734470   -7.730610
 H   1.485990   -5.698190   -5.171240
 H   2.602850   -5.126630   -5.850020
 H   -2.090340   -7.073950   -0.717080
 H   -2.087870   -8.640970   -1.052280
 H   -7.089760   -5.042660   -2.503400
 H   -6.294990   -4.325640   -3.433790
 H   -0.647080   -5.175990   6.184550
 H   0.607210   -5.691960   7.045390
 H   5.045140   6.540130   1.547570
 H   4.263110   7.514280   0.662500
 H   8.116620   -3.781620   1.349560
 H   7.737230   -2.886360   0.477590
 H   -2.832770   5.249410   -4.431110
 H   -3.716430   5.020470   -5.787110
 H   -8.116270   -0.480190   1.384640
 H   -8.314590   -0.681770   2.779230
 H   -2.253640   -6.384280   4.802840
 H   -2.950290   -5.245450   6.050440
 H   7.192230   -1.564190   -1.202410
 H   8.353980   -2.616090   -1.527720
 H   -6.121310   -2.621390   -5.267720
 H   -5.279130   -1.398900   -5.530280
 H   -6.579740   -0.387180   -4.366290
 H   -7.680230   0.033810   -3.436900
 H   6.332140   -3.645300   2.798150
 H   5.462880   -3.425370   4.028840
 H   -8.088850   1.661360   1.033010
 H   -8.915400   1.226120   -0.278320
 H   7.113010   3.092390   -0.859720
 H   8.413270   2.978820   -0.305090
 H   0.395620   8.205340   -2.817580
 H   1.411150   7.251270   -3.042760
 H   -1.806590   -0.872500   9.039250
 H   -0.143460   -0.627360   8.743630
 H   0.772220   4.030540   -8.583180
 H   -0.419340   3.971710   -7.370780
 H   -2.058380   -7.239480   -4.155560
 H   -2.841480   -7.330410   -2.928800
 H   -6.709120   3.012090   5.837120
 H   -5.591420   3.226150   4.684140

